<routes>
    <vType id="car" accel="1.0" decel="4.5" length="5.0" minGap="2.5" maxSpeed="16.67"/>
    <route id="human_route" edges=""/>
    <vehicle id="driver1" type="car" route="human_route" depart="0"/>
</routes>
