<input>
    <net-file value="exported_map.net.xml"/>
    <route-files value="human_driver.rou.xml"/>
</input>
